@<TRIPOS>MOLECULE
*****
 18 18 0 0 0
SMALL
GASTEIGER

@<TRIPOS>ATOM
      1 C           1.1391   -1.3854    0.2709 C.3     1  UNL1        0.0820
      2 O           2.5658   -1.3755    0.2967 O.3     1  UNL1       -0.4645
      3 C           3.1347   -0.9627   -0.8659 C.2     1  UNL1        0.3389
      4 O           2.5370   -0.6214   -1.8765 O.2     1  UNL1       -0.2450
      5 C           4.6095   -1.0434   -0.7696 C.ar    1  UNL1        0.0590
      6 C           5.2818   -0.9279    0.4534 C.ar    1  UNL1       -0.0478
      7 C           6.6743   -1.0174    0.4933 C.ar    1  UNL1       -0.0610
      8 C           7.3965   -1.2239   -0.6834 C.ar    1  UNL1       -0.0617
      9 C           6.7303   -1.3307   -1.9047 C.ar    1  UNL1       -0.0610
     10 C           5.3387   -1.2337   -1.9503 C.ar    1  UNL1       -0.0478
     11 H           0.7845   -1.6238    1.2776 H       1  UNL1        0.0661
     12 H           0.7771   -2.1552   -0.4175 H       1  UNL1        0.0661
     13 H           0.7488   -0.4011   -0.0073 H       1  UNL1        0.0661
     14 H           4.7314   -0.7581    1.3753 H       1  UNL1        0.0626
     15 H           7.1984   -0.9249    1.4425 H       1  UNL1        0.0618
     16 H           8.4803   -1.3005   -0.6488 H       1  UNL1        0.0618
     17 H           7.2938   -1.4866   -2.8199 H       1  UNL1        0.0618
     18 H           4.8240   -1.3150   -2.9057 H       1  UNL1        0.0626
@<TRIPOS>BOND
     1     1     2    1
     2     2     3    1
     3     3     4    2
     4     3     5    1
     5     5     6   ar
     6     6     7   ar
     7     7     8   ar
     8     8     9   ar
     9     9    10   ar
    10     5    10   ar
    11     1    11    1
    12     1    12    1
    13     1    13    1
    14     6    14    1
    15     7    15    1
    16     8    16    1
    17     9    17    1
    18    10    18    1
