@<TRIPOS>MOLECULE
*****
   18    18     1     0     0
SMALL
bcc


@<TRIPOS>ATOM
      1 C            1.1390    -1.3850     0.2710 c3         1 UNL       0.127700
      2 O            2.5660    -1.3750     0.2970 os         1 UNL      -0.439900
      3 C1           3.1350    -0.9630    -0.8660 c          1 UNL       0.644700
      4 O1           2.5370    -0.6210    -1.8770 o          1 UNL      -0.544000
      5 C2           4.6090    -1.0430    -0.7700 ca         1 UNL      -0.135600
      6 C3           5.2820    -0.9280     0.4530 ca         1 UNL      -0.071500
      7 C4           6.6740    -1.0170     0.4930 ca         1 UNL      -0.148000
      8 C5           7.3960    -1.2240    -0.6830 ca         1 UNL      -0.096000
      9 C6           6.7300    -1.3310    -1.9050 ca         1 UNL      -0.148000
     10 C7           5.3390    -1.2340    -1.9500 ca         1 UNL      -0.071500
     11 H            0.7840    -1.6240     1.2780 h1         1 UNL       0.051700
     12 H1           0.7770    -2.1550    -0.4170 h1         1 UNL       0.051700
     13 H2           0.7490    -0.4010    -0.0070 h1         1 UNL       0.051700
     14 H3           4.7310    -0.7580     1.3750 ha         1 UNL       0.156000
     15 H4           7.1980    -0.9250     1.4420 ha         1 UNL       0.139500
     16 H5           8.4800    -1.3000    -0.6490 ha         1 UNL       0.136000
     17 H6           7.2940    -1.4870    -2.8200 ha         1 UNL       0.139500
     18 H7           4.8240    -1.3150    -2.9060 ha         1 UNL       0.156000
@<TRIPOS>BOND
     1     1     2 1   
     2     2     3 1   
     3     3     4 2   
     4     3     5 1   
     5     5     6 ar  
     6     6     7 ar  
     7     7     8 ar  
     8     8     9 ar  
     9     9    10 ar  
    10     5    10 ar  
    11     1    11 1   
    12     1    12 1   
    13     1    13 1   
    14     6    14 1   
    15     7    15 1   
    16     8    16 1   
    17     9    17 1   
    18    10    18 1   
@<TRIPOS>SUBSTRUCTURE
     1 UNL         1 TEMP              0 ****  ****    0 ROOT
