@<TRIPOS>MOLECULE
*****
   21    21     1     0     0
SMALL
bcc


@<TRIPOS>ATOM
      1 C            5.0950     0.6370     1.5860 c3         1 UNL      -0.126100
      2 C1           3.9070    -0.2840     1.3750 c3         1 UNL       0.138400
      3 O            4.3270    -1.4980     0.7340 os         1 UNL      -0.441900
      4 C2           4.4700    -1.4230    -0.6220 c          1 UNL       0.639100
      5 O1           4.2620    -0.4230    -1.3000 o          1 UNL      -0.545000
      6 C3           4.9320    -2.7440    -1.1850 c3         1 UNL      -0.056100
      7 C4           6.4270    -2.8490    -1.2300 cc         1 UNL      -0.123300
      8 C5           7.2120    -3.3610    -0.2130 cd         1 UNL      -0.164100
      9 S            8.8770    -3.3760    -0.6030 ss         1 UNL       0.028200
     10 C6           8.5780    -2.6920    -2.1390 cd         1 UNL      -0.170100
     11 C7           7.2370    -2.4500    -2.3440 cc         1 UNL      -0.138000
     12 H            4.7860     1.5630     2.0780 hc         1 UNL       0.049367
     13 H1           5.5750     0.8900     0.6350 hc         1 UNL       0.049367
     14 H2           5.8540     0.1450     2.2020 hc         1 UNL       0.049367
     15 H3           3.1120     0.2070     0.8010 h1         1 UNL       0.061200
     16 H4           3.4790    -0.5610     2.3440 h1         1 UNL       0.061200
     17 H5           4.5090    -2.8430    -2.1910 hc         1 UNL       0.084200
     18 H6           4.4970    -3.5600    -0.5960 hc         1 UNL       0.084200
     19 H7           6.8880    -3.7350     0.7480 h4         1 UNL       0.172000
     20 H8           9.3970    -2.4990    -2.8180 h4         1 UNL       0.173000
     21 H9           6.8530    -2.0100    -3.2580 ha         1 UNL       0.175000
@<TRIPOS>BOND
     1     1     2 1   
     2     2     3 1   
     3     3     4 1   
     4     4     5 2   
     5     4     6 1   
     6     6     7 1   
     7     7     8 2   
     8     8     9 1   
     9     9    10 1   
    10    10    11 2   
    11     7    11 1   
    12     1    12 1   
    13     1    13 1   
    14     1    14 1   
    15     2    15 1   
    16     2    16 1   
    17     6    17 1   
    18     6    18 1   
    19     8    19 1   
    20    10    20 1   
    21    11    21 1   
@<TRIPOS>SUBSTRUCTURE
     1 UNL         1 TEMP              0 ****  ****    0 ROOT
