@<TRIPOS>MOLECULE
*****
 27 27 0 0 0
SMALL
GASTEIGER

@<TRIPOS>ATOM
      1 C           2.3981    2.1821    0.2064 C.3     1  UNL1       -0.0306
      2 C           2.4219    0.6616    0.1996 C.3     1  UNL1        0.0896
      3 O           2.9631    0.2259    1.4548 O.3     1  UNL1       -0.4649
      4 C           4.3207    0.1141    1.4827 C.2     1  UNL1        0.3071
      5 O           5.0487    0.1121    0.5005 O.2     1  UNL1       -0.2509
      6 C           4.7933    0.0859    2.9163 C.3     1  UNL1        0.0452
      7 C           6.3146    0.1193    2.9804 C.3     1  UNL1       -0.0390
      8 C           6.8303    0.2231    4.4160 C.3     1  UNL1       -0.0267
      9 C           8.3284    0.2556    4.4523 C.ar    1  UNL1       -0.0403
     10 C           9.0938    1.4047    4.3892 C.ar    1  UNL1       -0.0212
     11 S          10.7738    1.0849    4.4127 S.2     1  UNL1       -0.1048
     12 C          10.5038   -0.5988    4.5104 C.ar    1  UNL1       -0.0241
     13 C           9.1620   -0.9077    4.5223 C.ar    1  UNL1       -0.0516
     14 H           1.9975    2.5769   -0.7284 H       1  UNL1        0.0262
     15 H           3.4057    2.5849    0.3595 H       1  UNL1        0.0262
     16 H           1.7878    2.5436    1.0400 H       1  UNL1        0.0262
     17 H           2.9902    0.2744   -0.6535 H       1  UNL1        0.0694
     18 H           1.4049    0.2686    0.1183 H       1  UNL1        0.0694
     19 H           4.4044   -0.8147    3.4027 H       1  UNL1        0.0378
     20 H           4.3842    0.9707    3.4193 H       1  UNL1        0.0378
     21 H           6.6904    0.9703    2.3963 H       1  UNL1        0.0274
     22 H           6.7200   -0.7809    2.5017 H       1  UNL1        0.0274
     23 H           6.4644   -0.6290    5.0081 H       1  UNL1        0.0313
     24 H           6.4302    1.1294    4.8902 H       1  UNL1        0.0313
     25 H           8.7491    2.4277    4.3181 H       1  UNL1        0.0696
     26 H          11.3416   -1.2812    4.5465 H       1  UNL1        0.0693
     27 H           8.7920   -1.9253    4.5680 H       1  UNL1        0.0626
@<TRIPOS>BOND
     1     1     2    1
     2     2     3    1
     3     3     4    1
     4     4     5    2
     5     4     6    1
     6     6     7    1
     7     7     8    1
     8     8     9    1
     9     9    10   ar
    10    10    11   ar
    11    11    12   ar
    12    12    13   ar
    13     9    13   ar
    14     1    14    1
    15     1    15    1
    16     1    16    1
    17     2    17    1
    18     2    18    1
    19     6    19    1
    20     6    20    1
    21     7    21    1
    22     7    22    1
    23     8    23    1
    24     8    24    1
    25    10    25    1
    26    12    26    1
    27    13    27    1
