@<TRIPOS>MOLECULE
*****
   27    27     1     0     0
SMALL
bcc


@<TRIPOS>ATOM
      1 C            2.3980     2.1820     0.2060 c3         1 UNL      -0.126100
      2 C1           2.4220     0.6620     0.2000 c3         1 UNL       0.137400
      3 O            2.9630     0.2260     1.4550 os         1 UNL      -0.443900
      4 C2           4.3210     0.1140     1.4830 c          1 UNL       0.632100
      5 O1           5.0490     0.1120     0.5000 o          1 UNL      -0.544000
      6 C3           4.7930     0.0860     2.9160 c3         1 UNL      -0.129400
      7 C4           6.3150     0.1190     2.9800 c3         1 UNL      -0.075400
      8 C5           6.8300     0.2230     4.4160 c3         1 UNL      -0.012100
      9 C6           8.3280     0.2560     4.4520 cc         1 UNL      -0.110300
     10 C7           9.0940     1.4050     4.3890 cd         1 UNL      -0.171100
     11 S           10.7740     1.0850     4.4130 ss         1 UNL       0.025200
     12 C8          10.5040    -0.5990     4.5100 cd         1 UNL      -0.172100
     13 C9           9.1620    -0.9080     4.5220 cc         1 UNL      -0.150000
     14 H            1.9980     2.5770    -0.7280 hc         1 UNL       0.048700
     15 H1           3.4060     2.5850     0.3590 hc         1 UNL       0.048700
     16 H2           1.7880     2.5440     1.0400 hc         1 UNL       0.048700
     17 H3           2.9900     0.2740    -0.6530 h1         1 UNL       0.061700
     18 H4           1.4050     0.2690     0.1180 h1         1 UNL       0.061700
     19 H5           4.4040    -0.8150     3.4030 hc         1 UNL       0.077200
     20 H6           4.3840     0.9710     3.4190 hc         1 UNL       0.077200
     21 H7           6.6900     0.9700     2.3960 hc         1 UNL       0.061200
     22 H8           6.7200    -0.7810     2.5020 hc         1 UNL       0.061200
     23 H9           6.4640    -0.6290     5.0080 hc         1 UNL       0.048200
     24 H10          6.4300     1.1290     4.8900 hc         1 UNL       0.048200
     25 H11          8.7490     2.4280     4.3180 h4         1 UNL       0.173000
     26 H12         11.3420    -1.2810     4.5460 h4         1 UNL       0.170000
     27 H13          8.7920    -1.9250     4.5680 ha         1 UNL       0.152000
@<TRIPOS>BOND
     1     1     2 1   
     2     2     3 1   
     3     3     4 1   
     4     4     5 2   
     5     4     6 1   
     6     6     7 1   
     7     7     8 1   
     8     8     9 1   
     9     9    10 2   
    10    10    11 1   
    11    11    12 1   
    12    12    13 2   
    13     9    13 1   
    14     1    14 1   
    15     1    15 1   
    16     1    16 1   
    17     2    17 1   
    18     2    18 1   
    19     6    19 1   
    20     6    20 1   
    21     7    21 1   
    22     7    22 1   
    23     8    23 1   
    24     8    24 1   
    25    10    25 1   
    26    12    26 1   
    27    13    27 1   
@<TRIPOS>SUBSTRUCTURE
     1 UNL         1 TEMP              0 ****  ****    0 ROOT
