@<TRIPOS>MOLECULE
*****
 15 14 0 0 0
SMALL
GASTEIGER

@<TRIPOS>ATOM
      1 C           1.1260    0.0126   -0.0609 C.3     1  UNL1        0.0123
      2 C           2.6338    0.0043   -0.0629 C.2     1  UNL1        0.2120
      3 O           3.2388   -0.9505   -0.5496 O.2     1  UNL1       -0.2759
      4 N           3.2790    1.0992    0.4966 N.am    1  UNL1       -0.3078
      5 C           2.6102    2.2501    1.0850 C.3     1  UNL1        0.0028
      6 C           4.7339    1.1277    0.5113 C.3     1  UNL1        0.0028
      7 H           0.7600   -0.9057   -0.5301 H       1  UNL1        0.0323
      8 H           0.7500    0.8607   -0.6392 H       1  UNL1        0.0323
      9 H           0.7477    0.0423    0.9644 H       1  UNL1        0.0323
     10 H           1.5232    2.1759    1.0471 H       1  UNL1        0.0428
     11 H           2.9160    3.1492    0.5417 H       1  UNL1        0.0428
     12 H           2.9160    2.3362    2.1320 H       1  UNL1        0.0428
     13 H           5.1726    0.2364    0.0556 H       1  UNL1        0.0428
     14 H           5.0759    1.1949    1.5485 H       1  UNL1        0.0428
     15 H           5.0759    2.0078   -0.0417 H       1  UNL1        0.0428
@<TRIPOS>BOND
     1     1     2    1
     2     2     3    2
     3     2     4   am
     4     4     5    1
     5     4     6    1
     6     1     7    1
     7     1     8    1
     8     1     9    1
     9     5    10    1
    10     5    11    1
    11     5    12    1
    12     6    13    1
    13     6    14    1
    14     6    15    1
