@<TRIPOS>MOLECULE
*****
   15    14     1     0     0
SMALL
bcc


@<TRIPOS>ATOM
      1 C            1.1260     0.0130    -0.0610 c3         1 UNL      -0.169100
      2 C1           2.6340     0.0040    -0.0630 c          1 UNL       0.659100
      3 O            3.2390    -0.9510    -0.5500 o          1 UNL      -0.609100
      4 N            3.2790     1.0990     0.4970 n          1 UNL      -0.484800
      5 C2           2.6100     2.2500     1.0850 c3         1 UNL       0.081800
      6 C3           4.7340     1.1280     0.5110 c3         1 UNL       0.081800
      7 H            0.7600    -0.9060    -0.5300 hc         1 UNL       0.065033
      8 H1           0.7500     0.8610    -0.6390 hc         1 UNL       0.065033
      9 H2           0.7480     0.0420     0.9640 hc         1 UNL       0.065033
     10 H3           1.5230     2.1760     1.0470 h1         1 UNL       0.041200
     11 H4           2.9160     3.1490     0.5420 h1         1 UNL       0.041200
     12 H5           2.9160     2.3360     2.1320 h1         1 UNL       0.041200
     13 H6           5.1730     0.2360     0.0560 h1         1 UNL       0.041200
     14 H7           5.0760     1.1950     1.5480 h1         1 UNL       0.041200
     15 H8           5.0760     2.0080    -0.0420 h1         1 UNL       0.041200
@<TRIPOS>BOND
     1     1     2 1   
     2     2     3 2   
     3     2     4 1   
     4     4     5 1   
     5     4     6 1   
     6     1     7 1   
     7     1     8 1   
     8     1     9 1   
     9     5    10 1   
    10     5    11 1   
    11     5    12 1   
    12     6    13 1   
    13     6    14 1   
    14     6    15 1   
@<TRIPOS>SUBSTRUCTURE
     1 UNL         1 TEMP              0 ****  ****    0 ROOT
