@<TRIPOS>MOLECULE
*****
 27 27 0 0 0
SMALL
GASTEIGER

@<TRIPOS>ATOM
      1 C           1.1172   -0.0712   -0.0361 C.3     1  UNL1       -0.0653
      2 C           2.6406   -0.0334   -0.0255 C.3     1  UNL1       -0.0552
      3 C           3.1756    0.1608    1.3940 C.3     1  UNL1       -0.0438
      4 C           4.7050    0.2197    1.4327 C.3     1  UNL1        0.0012
      5 S           5.2143    0.5144    3.1502 S.3     1  UNL1       -0.0831
      6 C           6.9626    0.3388    3.0077 C.2     1  UNL1        0.2196
      7 O           7.5516    0.5972    1.9676 O.2     1  UNL1       -0.2797
      8 C           7.6745   -0.2117    4.1970 C.ar    1  UNL1        0.0284
      9 C           7.1887   -0.0645    5.5059 C.ar    1  UNL1       -0.0504
     10 C           7.8319   -0.6903    6.5769 C.ar    1  UNL1       -0.0611
     11 C           8.9717   -1.4628    6.3483 C.ar    1  UNL1       -0.0617
     12 C           9.4895   -1.5751    5.0595 C.ar    1  UNL1       -0.0611
     13 C           8.8522   -0.9452    3.9866 C.ar    1  UNL1       -0.0504
     14 H           0.7462   -0.2043   -1.0572 H       1  UNL1        0.0230
     15 H           0.6993    0.8610    0.3573 H       1  UNL1        0.0230
     16 H           0.7403   -0.8987    0.5726 H       1  UNL1        0.0230
     17 H           2.9829    0.7847   -0.6686 H       1  UNL1        0.0263
     18 H           3.0266   -0.9677   -0.4484 H       1  UNL1        0.0263
     19 H           2.8184   -0.6657    2.0235 H       1  UNL1        0.0273
     20 H           2.7553    1.0870    1.8048 H       1  UNL1        0.0273
     21 H           5.0743    1.0347    0.8020 H       1  UNL1        0.0381
     22 H           5.1304   -0.7226    1.0707 H       1  UNL1        0.0381
     23 H           6.3047    0.5321    5.7156 H       1  UNL1        0.0625
     24 H           7.4367   -0.5870    7.5834 H       1  UNL1        0.0618
     25 H           9.4548   -1.9704    7.1785 H       1  UNL1        0.0618
     26 H          10.3808   -2.1739    4.8861 H       1  UNL1        0.0618
     27 H           9.2662   -1.0447    2.9857 H       1  UNL1        0.0625
@<TRIPOS>BOND
     1     1     2    1
     2     2     3    1
     3     3     4    1
     4     4     5    1
     5     5     6    1
     6     6     7    2
     7     6     8    1
     8     8     9   ar
     9     9    10   ar
    10    10    11   ar
    11    11    12   ar
    12    12    13   ar
    13     8    13   ar
    14     1    14    1
    15     1    15    1
    16     1    16    1
    17     2    17    1
    18     2    18    1
    19     3    19    1
    20     3    20    1
    21     4    21    1
    22     4    22    1
    23     9    23    1
    24    10    24    1
    25    11    25    1
    26    12    26    1
    27    13    27    1
