@<TRIPOS>MOLECULE
*****
   27    27     1     0     0
SMALL
bcc


@<TRIPOS>ATOM
      1 C            1.1170    -0.0710    -0.0360 c3         1 UNL      -0.093100
      2 C1           2.6410    -0.0330    -0.0250 c3         1 UNL      -0.080400
      3 C2           3.1760     0.1610     1.3940 c3         1 UNL      -0.073400
      4 C3           4.7050     0.2200     1.4330 c3         1 UNL      -0.024300
      5 S            5.2140     0.5140     3.1500 ss         1 UNL      -0.254700
      6 C4           6.9630     0.3390     3.0080 c          1 UNL       0.590300
      7 O            7.5520     0.5970     1.9680 o          1 UNL      -0.536100
      8 C5           7.6750    -0.2120     4.1970 ca         1 UNL      -0.166600
      9 C6           7.1890    -0.0650     5.5060 ca         1 UNL      -0.077500
     10 C7           7.8320    -0.6900     6.5770 ca         1 UNL      -0.144000
     11 C8           8.9720    -1.4630     6.3480 ca         1 UNL      -0.100000
     12 C9           9.4890    -1.5750     5.0590 ca         1 UNL      -0.144000
     13 C10          8.8520    -0.9450     3.9870 ca         1 UNL      -0.077500
     14 H            0.7460    -0.2040    -1.0570 hc         1 UNL       0.035033
     15 H1           0.6990     0.8610     0.3570 hc         1 UNL       0.035033
     16 H2           0.7400    -0.8990     0.5730 hc         1 UNL       0.035033
     17 H3           2.9830     0.7850    -0.6690 hc         1 UNL       0.041700
     18 H4           3.0270    -0.9680    -0.4480 hc         1 UNL       0.041700
     19 H5           2.8180    -0.6660     2.0230 hc         1 UNL       0.052200
     20 H6           2.7550     1.0870     1.8050 hc         1 UNL       0.052200
     21 H7           5.0740     1.0350     0.8020 h1         1 UNL       0.086200
     22 H8           5.1300    -0.7230     1.0710 h1         1 UNL       0.086200
     23 H9           6.3050     0.5320     5.7160 ha         1 UNL       0.152500
     24 H10          7.4370    -0.5870     7.5830 ha         1 UNL       0.138000
     25 H11          9.4550    -1.9700     7.1780 ha         1 UNL       0.135000
     26 H12         10.3810    -2.1740     4.8860 ha         1 UNL       0.138000
     27 H13          9.2660    -1.0450     2.9860 ha         1 UNL       0.152500
@<TRIPOS>BOND
     1     1     2 1   
     2     2     3 1   
     3     3     4 1   
     4     4     5 1   
     5     5     6 1   
     6     6     7 2   
     7     6     8 1   
     8     8     9 ar  
     9     9    10 ar  
    10    10    11 ar  
    11    11    12 ar  
    12    12    13 ar  
    13     8    13 ar  
    14     1    14 1   
    15     1    15 1   
    16     1    16 1   
    17     2    17 1   
    18     2    18 1   
    19     3    19 1   
    20     3    20 1   
    21     4    21 1   
    22     4    22 1   
    23     9    23 1   
    24    10    24 1   
    25    11    25 1   
    26    12    26 1   
    27    13    27 1   
@<TRIPOS>SUBSTRUCTURE
     1 UNL         1 TEMP              0 ****  ****    0 ROOT
