@<TRIPOS>MOLECULE
*****
 14 13 0 0 0
SMALL
GASTEIGER

@<TRIPOS>ATOM
      1 C           2.5556    1.2483   -0.8676 C.3     1  UNL1       -0.0306
      2 C           2.5182   -0.0538   -0.0888 C.3     1  UNL1        0.0896
      3 O           2.9909   -1.1337   -0.9075 O.3     1  UNL1       -0.4651
      4 C           4.3424   -1.2788   -0.9629 C.2     1  UNL1        0.3039
      5 O           5.1579   -0.5804   -0.3743 O.2     1  UNL1       -0.2512
      6 C           4.7202   -2.4123   -1.8659 C.3     1  UNL1        0.0332
      7 H           2.1805    2.0761   -0.2595 H       1  UNL1        0.0262
      8 H           1.9455    1.1695   -1.7734 H       1  UNL1        0.0262
      9 H           3.5736    1.4866   -1.1917 H       1  UNL1        0.0262
     10 H           1.4851   -0.2875    0.1881 H       1  UNL1        0.0694
     11 H           3.0928    0.0159    0.8420 H       1  UNL1        0.0694
     12 H           3.8313   -2.9155   -2.2566 H       1  UNL1        0.0342
     13 H           5.3085   -3.1401   -1.3016 H       1  UNL1        0.0342
     14 H           5.2974   -2.0231   -2.7083 H       1  UNL1        0.0342
@<TRIPOS>BOND
     1     1     2    1
     2     2     3    1
     3     3     4    1
     4     4     5    2
     5     4     6    1
     6     1     7    1
     7     1     8    1
     8     1     9    1
     9     2    10    1
    10     2    11    1
    11     6    12    1
    12     6    13    1
    13     6    14    1
