@<TRIPOS>MOLECULE
*****
   14    13     1     0     0
SMALL
bcc


@<TRIPOS>ATOM
      1 C            2.5560     1.2480    -0.8680 c3         1 UNL      -0.126100
      2 C1           2.5180    -0.0540    -0.0890 c3         1 UNL       0.138400
      3 O            2.9910    -1.1340    -0.9070 os         1 UNL      -0.443900
      4 C2           4.3420    -1.2790    -0.9630 c          1 UNL       0.632100
      5 O1           5.1580    -0.5800    -0.3740 o          1 UNL      -0.546000
      6 C3           4.7200    -2.4120    -1.8660 c3         1 UNL      -0.151100
      7 H            2.1800     2.0760    -0.2600 hc         1 UNL       0.049033
      8 H1           1.9460     1.1690    -1.7730 hc         1 UNL       0.049033
      9 H2           3.5740     1.4870    -1.1920 hc         1 UNL       0.049033
     10 H3           1.4850    -0.2870     0.1880 h1         1 UNL       0.061700
     11 H4           3.0930     0.0160     0.8420 h1         1 UNL       0.061700
     12 H5           3.8310    -2.9160    -2.2570 hc         1 UNL       0.075700
     13 H6           5.3090    -3.1400    -1.3020 hc         1 UNL       0.075700
     14 H7           5.2970    -2.0230    -2.7080 hc         1 UNL       0.075700
@<TRIPOS>BOND
     1     1     2 1   
     2     2     3 1   
     3     3     4 1   
     4     4     5 2   
     5     4     6 1   
     6     1     7 1   
     7     1     8 1   
     8     1     9 1   
     9     2    10 1   
    10     2    11 1   
    11     6    12 1   
    12     6    13 1   
    13     6    14 1   
@<TRIPOS>SUBSTRUCTURE
     1 UNL         1 TEMP              0 ****  ****    0 ROOT
