@<TRIPOS>MOLECULE
*****
 14 13 0 0 0
SMALL
GASTEIGER

@<TRIPOS>ATOM
      1 C           1.0794    0.0800   -0.0519 C.3     1  UNL1       -0.0558
      2 C           2.5955    0.1108    0.0317 C.3     1  UNL1       -0.0019
      3 S           3.0988    0.7128    1.6686 S.3     1  UNL1       -0.0887
      4 C           4.8480    0.6456    1.4858 C.2     1  UNL1        0.1863
      5 O           5.3841    0.2655    0.4524 O.2     1  UNL1       -0.2855
      6 C           5.6249    1.0895    2.6930 C.3     1  UNL1        0.0044
      7 H           0.7653   -0.2820   -1.0363 H       1  UNL1        0.0238
      8 H           0.6493    1.0782    0.0860 H       1  UNL1        0.0238
      9 H           0.6493   -0.5909    0.6998 H       1  UNL1        0.0238
     10 H           2.9946    0.7725   -0.7441 H       1  UNL1        0.0378
     11 H           2.9946   -0.8958   -0.1305 H       1  UNL1        0.0378
     12 H           4.9749    1.3930    3.5182 H       1  UNL1        0.0315
     13 H           6.2534    1.9416    2.4191 H       1  UNL1        0.0315
     14 H           6.2534    0.2631    3.0364 H       1  UNL1        0.0315
@<TRIPOS>BOND
     1     1     2    1
     2     2     3    1
     3     3     4    1
     4     4     5    2
     5     4     6    1
     6     1     7    1
     7     1     8    1
     8     1     9    1
     9     2    10    1
    10     2    11    1
    11     6    12    1
    12     6    13    1
    13     6    14    1
