@<TRIPOS>MOLECULE
*****
   14    13     1     0     0
SMALL
bcc


@<TRIPOS>ATOM
      1 C            1.0790     0.0800    -0.0520 c3         1 UNL      -0.088100
      2 C1           2.5950     0.1110     0.0320 c3         1 UNL      -0.019300
      3 S            3.0990     0.7130     1.6690 ss         1 UNL      -0.271700
      4 C2           4.8480     0.6460     1.4860 c          1 UNL       0.578700
      5 O            5.3840     0.2660     0.4520 o          1 UNL      -0.533100
      6 C3           5.6250     1.0890     2.6930 c3         1 UNL      -0.192100
      7 H            0.7650    -0.2820    -1.0360 hc         1 UNL       0.045367
      8 H1           0.6490     1.0780     0.0860 hc         1 UNL       0.045367
      9 H2           0.6490    -0.5910     0.7000 hc         1 UNL       0.045367
     10 H3           2.9950     0.7720    -0.7440 h1         1 UNL       0.083700
     11 H4           2.9950    -0.8960    -0.1310 h1         1 UNL       0.083700
     12 H5           4.9750     1.3930     3.5180 hc         1 UNL       0.073700
     13 H6           6.2530     1.9420     2.4190 hc         1 UNL       0.073700
     14 H7           6.2530     0.2630     3.0360 hc         1 UNL       0.073700
@<TRIPOS>BOND
     1     1     2 1   
     2     2     3 1   
     3     3     4 1   
     4     4     5 2   
     5     4     6 1   
     6     1     7 1   
     7     1     8 1   
     8     1     9 1   
     9     2    10 1   
    10     2    11 1   
    11     6    12 1   
    12     6    13 1   
    13     6    14 1   
@<TRIPOS>SUBSTRUCTURE
     1 UNL         1 TEMP              0 ****  ****    0 ROOT
